Version 4
SHEET 1 880 680
WIRE -64 224 -64 160
WIRE 496 224 496 160
WIRE 496 224 -64 224
SYMBOL 74HCT\\74hct04 -16 96 R0
SYMATTR InstName U1
SYMBOL 74HCT\\74hct04 96 96 R0
SYMATTR InstName U2
SYMBOL 74HCT\\74hct04 208 96 R0
SYMATTR InstName U3
SYMBOL 74HCT\\74hct04 320 96 R0
SYMATTR InstName U4
SYMBOL 74HCT\\74hct04 432 96 R0
SYMATTR InstName U5
TEXT 344 256 Left 2 !.lib 74HCT.lib
TEXT -70 276 Left 2 !.tran 0 0.0001 0 1u
