Version 4
SHEET 1 1020 680
WIRE -496 144 -608 144
WIRE 768 160 736 160
WIRE 880 176 880 160
WIRE 736 224 736 160
WIRE 736 224 -528 224
WIRE -656 240 -656 208
WIRE -608 240 -608 144
WIRE -608 240 -656 240
WIRE -1216 272 -1216 208
WIRE -656 272 -656 240
WIRE -656 272 -1216 272
WIRE -496 272 -496 176
WIRE 736 272 -496 272
WIRE 880 272 880 256
WIRE -528 320 -528 224
WIRE -496 320 -528 320
WIRE 736 336 736 272
WIRE 768 336 736 336
WIRE -608 352 -608 240
WIRE 880 352 880 336
WIRE 880 448 880 432
FLAG 880 272 0
FLAG 880 448 0
SYMBOL 74HCT\\74hct04 0 96 R0
SYMATTR InstName U1
SYMBOL 74HCT\\74hct04 112 96 R0
SYMATTR InstName U2
SYMBOL 74HCT\\74hct04 224 96 R0
SYMATTR InstName U3
SYMBOL 74HCT\\74hct04 336 96 R0
SYMATTR InstName U4
SYMBOL 74HCT\\74hct04 448 96 R0
SYMATTR InstName U5
SYMBOL 74HCT\\74hct04 -112 96 R0
SYMATTR InstName U6
SYMBOL 74HCT\\74hct04 -224 96 R0
SYMATTR InstName U7
SYMBOL 74HCT\\74hct04 -336 96 R0
SYMATTR InstName U8
SYMBOL 74HCT\\74hct04 560 96 R0
SYMATTR InstName U9
SYMBOL 74HCT\\74hct04 672 96 R0
SYMATTR InstName U10
SYMBOL 74HCT\\74hct04 0 272 R0
SYMATTR InstName U11
SYMBOL 74HCT\\74hct04 112 272 R0
SYMATTR InstName U12
SYMBOL 74HCT\\74hct04 224 272 R0
SYMATTR InstName U13
SYMBOL 74HCT\\74hct04 336 272 R0
SYMATTR InstName U14
SYMBOL 74HCT\\74hct04 448 272 R0
SYMATTR InstName U15
SYMBOL 74HCT\\74hct04 -112 272 R0
SYMATTR InstName U16
SYMBOL 74HCT\\74hct04 -224 272 R0
SYMATTR InstName U17
SYMBOL 74HCT\\74hct04 -336 272 R0
SYMATTR InstName U18
SYMBOL 74HCT\\74hct04 560 272 R0
SYMATTR InstName U19
SYMBOL 74HCT\\74hct04 672 272 R0
SYMATTR InstName U20
SYMBOL 74HCT\\74hct04 816 96 R0
SYMATTR InstName U21
SYMBOL 74HCT\\74hct04 816 272 R0
SYMATTR InstName U22
SYMBOL 74HCT\\74hct04 -560 288 R0
SYMATTR InstName U23
SYMBOL 74HCT\\74hct02 -448 272 R0
SYMATTR InstName U24
SYMBOL 74HCT\\74hct02 -448 96 R0
SYMATTR InstName U25
SYMBOL 74HCT\\74hct04 -1168 144 R0
SYMATTR InstName U26
SYMBOL 74HCT\\74hct04 -1056 144 R0
SYMATTR InstName U27
SYMBOL 74HCT\\74hct04 -944 144 R0
SYMATTR InstName U28
SYMBOL 74HCT\\74hct04 -832 144 R0
SYMATTR InstName U29
SYMBOL 74HCT\\74hct04 -720 144 R0
SYMATTR InstName U30
SYMBOL res 864 160 R0
SYMATTR InstName R1
SYMATTR Value 1Meg
SYMBOL res 864 336 R0
SYMATTR InstName R2
SYMATTR Value 1Meg
TEXT -800 304 Left 2 !.lib 74HCT.lib
TEXT -1222 472 Left 2 !.tran 0 0.0001 0 1u
