Version 4
SHEET 1 880 680
WIRE -64 -64 -112 -64
WIRE 64 -64 16 -64
WIRE -64 32 -80 32
WIRE -112 48 -112 -64
WIRE -80 48 -80 32
WIRE -80 48 -112 48
WIRE 64 48 64 -64
WIRE 64 48 48 48
WIRE 144 48 64 48
WIRE -80 64 -80 48
WIRE -64 64 -80 64
WIRE -112 112 -112 48
WIRE -112 208 -112 176
WIRE 64 208 -112 208
WIRE 64 224 64 208
FLAG 64 224 0
FLAG 144 48 Output
IOPIN 144 48 Out
SYMBOL 74HCT\\74hct132 -16 -16 R0
SYMATTR InstName 5V
SYMBOL res 32 -80 R90
WINDOW 0 0 56 VBottom 2
WINDOW 3 32 56 VTop 2
SYMATTR InstName R1
SYMATTR Value 2K
SYMBOL cap -128 112 R0
SYMATTR InstName C1
SYMATTR Value 10nF
TEXT 104 232 Left 2 !.lib 74HCT.lib
TEXT -130 252 Left 2 !.tran 0 0.001 0 1u
