Version 4
SHEET 1 880 680
WIRE 192 32 80 32
WIRE 304 32 272 32
WIRE 176 144 160 144
WIRE 80 160 80 32
WIRE 160 160 160 144
WIRE 160 160 80 160
WIRE 304 160 304 32
WIRE 304 160 288 160
WIRE 368 160 304 160
WIRE 160 176 160 160
WIRE 176 176 160 176
WIRE 80 240 80 160
WIRE 80 320 80 304
FLAG 80 320 0
FLAG 368 160 output
IOPIN 368 160 Out
SYMBOL 74HCT\\74hct132 224 96 R0
SYMATTR InstName U1
SYMBOL res 288 16 R90
WINDOW 0 0 56 VBottom 2
WINDOW 3 32 56 VTop 2
SYMATTR InstName R1
SYMATTR Value 2000
SYMBOL cap 64 240 R0
SYMATTR InstName C1
SYMATTR Value 10n
TEXT 208 264 Left 2 !.lib 74HCT.lib
TEXT 180 296 Left 2 !.tran 0 0.01 0 100u
