Version 4
SHEET 1 880 680
WIRE -64 176 -64 96
WIRE 496 176 496 96
WIRE 496 176 -64 176
SYMBOL 74HCT\\74hct04 -16 32 R0
SYMATTR InstName U1
SYMBOL 74HCT\\74hct04 96 32 R0
SYMATTR InstName U2
SYMBOL 74HCT\\74hct04 208 32 R0
SYMATTR InstName U3
SYMBOL 74HCT\\74hct04 320 32 R0
SYMATTR InstName U4
SYMBOL 74HCT\\74hct04 432 32 R0
SYMATTR InstName U5
TEXT 128 216 Left 2 !.lib 74HCT.lib
TEXT 82 244 Left 2 !.tran 0 0.001 0 100u
