Version 4
SHEET 1 2252 680
WIRE 688 32 528 32
WIRE 1968 48 1920 48
WIRE 2128 48 2080 48
WIRE 688 64 624 64
WIRE 1920 112 1920 48
WIRE 1920 112 672 112
WIRE 496 144 496 96
WIRE 528 144 528 32
WIRE 528 144 496 144
WIRE 624 160 624 64
WIRE 1920 160 624 160
WIRE 2128 160 2128 128
WIRE -64 176 -64 96
WIRE 496 176 496 144
WIRE 496 176 -64 176
WIRE 672 208 672 112
WIRE 688 208 672 208
WIRE 1920 224 1920 160
WIRE 1968 224 1920 224
WIRE 2128 224 2080 224
WIRE 528 240 528 144
WIRE 688 240 640 240
WIRE 2128 336 2128 304
FLAG 2128 160 0
FLAG 2128 336 0
SYMBOL 74HCT\\74hct04 -16 32 R0
SYMATTR InstName U1
SYMBOL 74HCT\\74hct04 96 32 R0
SYMATTR InstName U2
SYMBOL 74HCT\\74hct04 208 32 R0
SYMATTR InstName U3
SYMBOL 74HCT\\74hct04 320 32 R0
SYMATTR InstName U4
SYMBOL 74HCT\\74hct04 432 32 R0
SYMATTR InstName U5
SYMBOL 74HCT\\74hct04 576 176 R0
SYMATTR InstName U6
SYMBOL 74HCT\\74hct02 736 -16 R0
SYMATTR InstName U7
SYMBOL 74HCT\\74hct04 848 -16 R0
SYMATTR InstName U8
SYMBOL 74HCT\\74hct04 960 -16 R0
SYMATTR InstName U9
SYMBOL 74HCT\\74hct04 1072 -16 R0
SYMATTR InstName U10
SYMBOL 74HCT\\74hct04 1184 -16 R0
SYMATTR InstName U11
SYMBOL 74HCT\\74hct04 1296 -16 R0
SYMATTR InstName U12
SYMBOL 74HCT\\74hct04 1408 -16 R0
SYMATTR InstName U13
SYMBOL 74HCT\\74hct04 1520 -16 R0
SYMATTR InstName U14
SYMBOL 74HCT\\74hct04 1632 -16 R0
SYMATTR InstName U15
SYMBOL 74HCT\\74hct04 1744 -16 R0
SYMATTR InstName U16
SYMBOL 74HCT\\74hct04 1856 -16 R0
SYMATTR InstName U17
SYMBOL 74HCT\\74hct04 848 160 R0
SYMATTR InstName U18
SYMBOL 74HCT\\74hct04 960 160 R0
SYMATTR InstName U19
SYMBOL 74HCT\\74hct04 1072 160 R0
SYMATTR InstName U20
SYMBOL 74HCT\\74hct04 1184 160 R0
SYMATTR InstName U21
SYMBOL 74HCT\\74hct04 1296 160 R0
SYMATTR InstName U22
SYMBOL 74HCT\\74hct04 1408 160 R0
SYMATTR InstName U23
SYMBOL 74HCT\\74hct04 1520 160 R0
SYMATTR InstName U24
SYMBOL 74HCT\\74hct04 1632 160 R0
SYMATTR InstName U25
SYMBOL 74HCT\\74hct04 1744 160 R0
SYMATTR InstName U26
SYMBOL 74HCT\\74hct04 1856 160 R0
SYMATTR InstName U27
SYMBOL 74HCT\\74hct04 2016 -16 R0
SYMATTR InstName U28
SYMBOL 74HCT\\74hct04 2016 160 R0
SYMATTR InstName U29
SYMBOL 74HCT\\74hct02 736 160 R0
SYMATTR InstName U30
SYMBOL res 2112 32 R0
SYMATTR InstName R1
SYMATTR Value 1Meg
SYMATTR SpiceLine tol=1 pwr=0.1
SYMBOL res 2112 208 R0
SYMATTR InstName R2
SYMATTR Value 1Meg
SYMATTR SpiceLine tol=1 pwr=0.1
TEXT 128 216 Left 2 !.lib 74HCT.lib
TEXT 82 244 Left 2 !.tran 0 0.001 0 100u
